Version 4
SHEET 1 2768 1196
WIRE 32 -1072 -16 -1072
WIRE 192 -1072 112 -1072
WIRE 1408 -976 1360 -976
WIRE 1568 -976 1488 -976
WIRE -16 -912 -16 -1072
WIRE -16 -912 -112 -912
WIRE 64 -912 -16 -912
WIRE 192 -896 192 -1072
WIRE 192 -896 128 -896
WIRE 256 -896 192 -896
WIRE 768 -896 256 -896
WIRE 1248 -896 864 -896
WIRE 64 -880 -64 -880
WIRE 256 -880 256 -896
WIRE -64 -832 -64 -880
WIRE -384 -816 -496 -816
WIRE -144 -816 -288 -816
WIRE 1248 -816 1248 -896
WIRE 1360 -816 1360 -976
WIRE 1360 -816 1248 -816
WIRE 1440 -816 1360 -816
WIRE 1568 -800 1568 -976
WIRE 1568 -800 1504 -800
WIRE 1632 -800 1568 -800
WIRE 1440 -784 1312 -784
WIRE 768 -768 560 -768
WIRE 1248 -768 1248 -816
WIRE 1248 -768 864 -768
WIRE -144 -752 -144 -816
WIRE -112 -752 -112 -912
WIRE -112 -752 -144 -752
WIRE 1312 -736 1312 -784
WIRE 560 -720 560 -768
WIRE 560 -720 240 -720
WIRE -384 -688 -496 -688
WIRE -144 -688 -144 -752
WIRE -144 -688 -288 -688
WIRE 48 -464 0 -464
WIRE 208 -464 128 -464
WIRE 832 -448 784 -448
WIRE 992 -448 912 -448
WIRE 1408 -448 1360 -448
WIRE 1568 -448 1488 -448
WIRE -384 -304 -512 -304
WIRE -144 -304 -288 -304
WIRE 0 -304 0 -464
WIRE 0 -304 -96 -304
WIRE 80 -304 0 -304
WIRE 208 -288 208 -464
WIRE 208 -288 144 -288
WIRE 240 -288 240 -720
WIRE 240 -288 208 -288
WIRE 256 -288 240 -288
WIRE 672 -288 640 -288
WIRE 784 -288 784 -448
WIRE 784 -288 752 -288
WIRE 864 -288 784 -288
WIRE 1232 -288 1184 -288
WIRE 1360 -288 1360 -448
WIRE 1360 -288 1312 -288
WIRE 1440 -288 1360 -288
WIRE 80 -272 -48 -272
WIRE 992 -272 992 -448
WIRE 992 -272 928 -272
WIRE 1056 -272 992 -272
WIRE 1568 -272 1568 -448
WIRE 1568 -272 1504 -272
WIRE 1632 -272 1568 -272
WIRE 864 -256 736 -256
WIRE 1056 -256 1056 -272
WIRE 1440 -256 1312 -256
WIRE 1632 -256 1632 -272
WIRE -144 -240 -144 -304
WIRE -96 -240 -96 -304
WIRE -96 -240 -144 -240
WIRE -48 -224 -48 -272
WIRE -384 -208 -512 -208
WIRE -144 -208 -144 -240
WIRE -144 -208 -288 -208
WIRE 736 -208 736 -256
WIRE 1312 -208 1312 -256
WIRE -608 256 -832 256
WIRE -832 352 -832 256
WIRE -832 480 -832 432
WIRE -816 480 -832 480
WIRE -816 496 -816 480
WIRE -224 528 -544 528
WIRE -544 608 -544 528
WIRE -544 864 -544 688
WIRE -224 864 -544 864
WIRE 464 880 368 880
WIRE -224 912 -224 864
WIRE 368 928 368 880
WIRE 368 1104 368 1008
FLAG -512 -304 S_A_IN
IOPIN -512 -304 In
FLAG -224 528 S_A
IOPIN -224 528 Out
FLAG -512 -208 S_B
IOPIN -512 -208 In
FLAG -608 256 S_B
IOPIN -608 256 Out
FLAG 464 880 S_L
IOPIN 464 880 Out
FLAG 704 576 V_n
IOPIN 704 576 Out
FLAG 368 1104 V_n
IOPIN 368 1104 In
FLAG -224 912 0
FLAG -816 496 0
FLAG 704 496 0
FLAG 848 528 V_p
IOPIN 848 528 Out
FLAG 848 608 0
FLAG -48 -224 S_L
IOPIN -48 -224 In
FLAG 256 -288 NOT_A_B
IOPIN 256 -288 Out
FLAG 112 -320 V_p
IOPIN 112 -320 In
FLAG 112 -256 V_n
IOPIN 112 -256 In
FLAG 736 -208 0
FLAG 1056 -256 S_A_IN
IOPIN 1056 -256 Out
FLAG 896 -304 V_p
IOPIN 896 -304 In
FLAG 896 -240 V_n
IOPIN 896 -240 In
FLAG 1312 -208 0
FLAG 1632 -256 S_B_IN
IOPIN 1632 -256 Out
FLAG 1472 -304 V_p
IOPIN 1472 -304 In
FLAG 1472 -240 V_n
IOPIN 1472 -240 In
FLAG 640 -288 S_A
IOPIN 640 -288 In
FLAG 1184 -288 S_B
IOPIN 1184 -288 In
FLAG -496 -816 S_A
IOPIN -496 -816 In
FLAG -496 -688 S_B_IN
IOPIN -496 -688 In
FLAG -64 -832 S_L
IOPIN -64 -832 In
FLAG 256 -880 A_NOT_B
IOPIN 256 -880 Out
FLAG 96 -928 V_p
IOPIN 96 -928 In
FLAG 96 -864 V_n
IOPIN 96 -864 In
FLAG 1472 -832 V_p
IOPIN 1472 -832 In
FLAG 1472 -768 V_n
IOPIN 1472 -768 In
FLAG 1312 -736 0
FLAG 1632 -800 S_out
IOPIN 1632 -800 Out
SYMBOL voltage 368 912 R0
WINDOW 3 24 96 Invisible 2
SYMATTR Value PWL(0 0 0.078 0 0.079 0 0.156 0 0.157 0.8 0.235 0.8 0.236 0.4 0.237 0.4)
SYMATTR InstName V3
SYMBOL voltage 704 480 R0
SYMATTR InstName V4
SYMATTR Value 0.4
SYMBOL memristor_with_state -336 -304 M270
SYMATTR InstName U1
SYMATTR Value MEM_A_SLOW
SYMBOL memristor_with_state -336 -208 R270
SYMATTR InstName U2
SYMATTR Value MEM_A_SLOW
SYMBOL voltage 848 512 R0
SYMATTR InstName V5
SYMATTR Value 0.4
SYMBOL OpAmps/UniversalOpAmp 112 -288 R0
SYMATTR InstName U4
SYMBOL res 144 -480 R90
WINDOW 0 0 56 VBottom 2
WINDOW 3 32 56 VTop 2
SYMATTR InstName R2
SYMATTR Value 10000
SYMBOL OpAmps/UniversalOpAmp 896 -272 R0
SYMATTR InstName U3
SYMBOL res 928 -464 R90
WINDOW 0 0 56 VBottom 2
WINDOW 3 32 56 VTop 2
SYMATTR InstName R1
SYMATTR Value 100
SYMBOL OpAmps/UniversalOpAmp 1472 -272 R0
SYMATTR InstName U5
SYMBOL res 1504 -464 R90
WINDOW 0 0 56 VBottom 2
WINDOW 3 32 56 VTop 2
SYMATTR InstName R3
SYMATTR Value 100
SYMBOL res 768 -304 R90
WINDOW 0 0 56 VBottom 2
WINDOW 3 32 56 VTop 2
SYMATTR InstName R4
SYMATTR Value 100
SYMBOL res 1328 -304 R90
WINDOW 0 0 56 VBottom 2
WINDOW 3 32 56 VTop 2
SYMATTR InstName R5
SYMATTR Value 100
SYMBOL memristor_with_state -336 -816 R270
SYMATTR InstName U6
SYMATTR Value MEM_A_SLOW
SYMBOL memristor_with_state -336 -688 M270
SYMATTR InstName U7
SYMATTR Value MEM_A_SLOW
SYMBOL voltage -544 592 R0
SYMATTR InstName V8
SYMATTR Value PWL file="/Users/ashiraip/Documents/References for School/Y3S1/Thesis/v_a_binary_l"
SYMBOL voltage -832 336 R0
SYMATTR InstName V9
SYMATTR Value PWL file="/Users/ashiraip/Documents/References for School/Y3S1/Thesis/v_b_binary_l"
SYMBOL OpAmps/UniversalOpAmp 96 -896 R0
SYMATTR InstName U8
SYMBOL res 128 -1088 R90
WINDOW 0 0 56 VBottom 2
WINDOW 3 32 56 VTop 2
SYMATTR InstName R6
SYMATTR Value 10000
SYMBOL OpAmps/UniversalOpAmp 1472 -800 R0
SYMATTR InstName U9
SYMBOL res 1504 -992 R90
WINDOW 0 0 56 VBottom 2
WINDOW 3 32 56 VTop 2
SYMATTR InstName R7
SYMATTR Value 1650
SYMBOL memristor_with_state 816 -896 M270
SYMATTR InstName U10
SYMATTR Value MEM_A_SLOW
SYMBOL memristor_with_state 816 -768 M270
SYMATTR InstName U11
SYMATTR Value MEM_A_SLOW
TEXT -568 -1272 Left 2 !.tran 0 0.30s\n.lib memristor_slow_1.sub
TEXT -560 -1064 Left 2 ;a AND NOT b
TEXT -600 -464 Left 2 ;NOT a AND b
TEXT 592 -504 Left 2 ;NOT A
TEXT 1160 -512 Left 2 ;NOT B
