Version 4
SHEET 1 1216 680
WIRE 1072 -128 1072 -176
WIRE 1072 -32 1072 -48
WIRE 1200 -32 1072 -32
WIRE -272 80 -272 32
WIRE 1072 96 1072 48
WIRE 352 128 256 128
WIRE 512 128 432 128
WIRE -272 224 -272 160
WIRE 416 320 416 272
WIRE -80 336 -208 336
WIRE 112 336 0 336
WIRE 256 336 256 128
WIRE 256 336 208 336
WIRE 384 336 256 336
WIRE 512 352 512 128
WIRE 512 352 448 352
WIRE 592 352 512 352
WIRE 384 368 304 368
WIRE 416 432 416 384
WIRE 304 448 304 368
FLAG -208 336 V_drive
IOPIN -208 336 In
FLAG -272 32 V_drive
IOPIN -272 32 Out
FLAG -272 224 0
FLAG 304 448 0
FLAG 592 352 V_out
IOPIN 592 352 Out
FLAG 1072 -176 V_p
IOPIN 1072 -176 Out
FLAG 1072 96 V_n
IOPIN 1072 96 Out
FLAG 416 272 V_p
IOPIN 416 272 In
FLAG 416 432 V_n
IOPIN 416 432 In
FLAG 1200 -32 0
SYMBOL memristor_with_state 160 336 R270
SYMATTR InstName U1
SYMATTR Value MEM_A_SLOW
SYMBOL res 16 320 R90
WINDOW 0 0 56 VBottom 2
WINDOW 3 32 56 VTop 2
SYMATTR InstName R1
SYMATTR Value 1050
SYMBOL OpAmps/UniversalOpAmp 416 352 R0
SYMATTR InstName U2
SYMBOL voltage -272 64 R0
SYMATTR InstName V1
SYMATTR Value PWL(0 0 0.25 2 0.5 0 0.75 -2 1 0)
SYMBOL res 448 112 R90
WINDOW 0 0 56 VBottom 2
WINDOW 3 32 56 VTop 2
SYMATTR InstName R2
SYMATTR Value 1000
SYMBOL voltage 1072 -144 R0
SYMATTR InstName V2
SYMATTR Value 5
SYMBOL voltage 1072 -48 R0
SYMATTR InstName V3
SYMATTR Value 5
TEXT -96 -56 Left 2 !.tran 0 1s\n.lib memristor_slow_1.sub
